
---------- Begin Simulation Statistics ----------
simSeconds                                   0.000103                       # Number of seconds simulated (Second)
simTicks                                    103301000                       # Number of ticks simulated (Tick)
finalTick                                   103301000                       # Number of ticks from beginning of simulation (restored from checkpoints and never reset) (Tick)
simFreq                                  1000000000000                       # The number of ticks per simulated second ((Tick/Second))
hostSeconds                                      0.23                       # Real time elapsed on the host (Second)
hostTickRate                                442435945                       # The number of ticks simulated per host second (ticks/s) ((Tick/Second))
hostMemory                                     653192                       # Number of bytes of host memory used (Byte)
simInsts                                        44276                       # Number of instructions simulated (Count)
simOps                                          92941                       # Number of ops (including micro ops) simulated (Count)
hostInstRate                                   189576                       # Simulator instruction rate (inst/s) ((Count/Second))
hostOpRate                                     397935                       # Simulator op (including micro ops) rate (op/s) ((Count/Second))
system.clk_domain.clock                          1000                       # Clock period in ticks (Tick)
system.clk_domain.voltage_domain.voltage            1                       # Voltage in Volts (Volt)
system.cpu.numCycles                           103302                       # Number of cpu cycles simulated (Cycle)
system.cpu.numWorkItemsStarted                      0                       # Number of work items this cpu started (Count)
system.cpu.numWorkItemsCompleted                    0                       # Number of work items this cpu completed (Count)
system.cpu.instsAdded                          121036                       # Number of instructions added to the IQ (excludes non-spec) (Count)
system.cpu.instsIssued                         115326                       # Number of instructions issued (Count)
system.cpu.squashedInstsIssued                    180                       # Number of squashed instructions issued (Count)
system.cpu.squashedInstsExamined                28089                       # Number of squashed instructions iterated over during squash; mainly for profiling (Count)
system.cpu.squashedOperandsExamined             39012                       # Number of squashed operands that are examined and possibly removed from graph (Count)
system.cpu.numIssuedDist::samples               76562                       # Number of insts issued each cycle (Count)
system.cpu.numIssuedDist::mean               1.506309                       # Number of insts issued each cycle (Count)
system.cpu.numIssuedDist::stdev              2.204899                       # Number of insts issued each cycle (Count)
system.cpu.numIssuedDist::underflows                0      0.00%      0.00% # Number of insts issued each cycle (Count)
system.cpu.numIssuedDist::0                     44407     58.00%     58.00% # Number of insts issued each cycle (Count)
system.cpu.numIssuedDist::1                      5820      7.60%     65.60% # Number of insts issued each cycle (Count)
system.cpu.numIssuedDist::2                      6244      8.16%     73.76% # Number of insts issued each cycle (Count)
system.cpu.numIssuedDist::3                      4881      6.38%     80.13% # Number of insts issued each cycle (Count)
system.cpu.numIssuedDist::4                      4792      6.26%     86.39% # Number of insts issued each cycle (Count)
system.cpu.numIssuedDist::5                      3878      5.07%     91.46% # Number of insts issued each cycle (Count)
system.cpu.numIssuedDist::6                      3281      4.29%     95.74% # Number of insts issued each cycle (Count)
system.cpu.numIssuedDist::7                      1941      2.54%     98.28% # Number of insts issued each cycle (Count)
system.cpu.numIssuedDist::8                      1318      1.72%    100.00% # Number of insts issued each cycle (Count)
system.cpu.numIssuedDist::overflows                 0      0.00%    100.00% # Number of insts issued each cycle (Count)
system.cpu.numIssuedDist::min_value                 0                       # Number of insts issued each cycle (Count)
system.cpu.numIssuedDist::max_value                 8                       # Number of insts issued each cycle (Count)
system.cpu.numIssuedDist::total                 76562                       # Number of insts issued each cycle (Count)
system.cpu.statFuBusy::No_OpClass                   0      0.00%      0.00% # attempts to use FU when none available (Count)
system.cpu.statFuBusy::IntAlu                     715     26.07%     26.07% # attempts to use FU when none available (Count)
system.cpu.statFuBusy::IntMult                      0      0.00%     26.07% # attempts to use FU when none available (Count)
system.cpu.statFuBusy::IntDiv                       0      0.00%     26.07% # attempts to use FU when none available (Count)
system.cpu.statFuBusy::FloatAdd                     0      0.00%     26.07% # attempts to use FU when none available (Count)
system.cpu.statFuBusy::FloatCmp                     0      0.00%     26.07% # attempts to use FU when none available (Count)
system.cpu.statFuBusy::FloatCvt                     0      0.00%     26.07% # attempts to use FU when none available (Count)
system.cpu.statFuBusy::FloatMult                    0      0.00%     26.07% # attempts to use FU when none available (Count)
system.cpu.statFuBusy::FloatMultAcc                 0      0.00%     26.07% # attempts to use FU when none available (Count)
system.cpu.statFuBusy::FloatDiv                     0      0.00%     26.07% # attempts to use FU when none available (Count)
system.cpu.statFuBusy::FloatMisc                    0      0.00%     26.07% # attempts to use FU when none available (Count)
system.cpu.statFuBusy::FloatSqrt                    0      0.00%     26.07% # attempts to use FU when none available (Count)
system.cpu.statFuBusy::SimdAdd                     16      0.58%     26.65% # attempts to use FU when none available (Count)
system.cpu.statFuBusy::SimdAddAcc                   0      0.00%     26.65% # attempts to use FU when none available (Count)
system.cpu.statFuBusy::SimdAlu                     14      0.51%     27.16% # attempts to use FU when none available (Count)
system.cpu.statFuBusy::SimdCmp                      0      0.00%     27.16% # attempts to use FU when none available (Count)
system.cpu.statFuBusy::SimdCvt                     11      0.40%     27.56% # attempts to use FU when none available (Count)
system.cpu.statFuBusy::SimdMisc                   525     19.14%     46.70% # attempts to use FU when none available (Count)
system.cpu.statFuBusy::SimdMult                   488     17.79%     64.49% # attempts to use FU when none available (Count)
system.cpu.statFuBusy::SimdMultAcc                  0      0.00%     64.49% # attempts to use FU when none available (Count)
system.cpu.statFuBusy::SimdShift                  462     16.84%     81.33% # attempts to use FU when none available (Count)
system.cpu.statFuBusy::SimdShiftAcc                 0      0.00%     81.33% # attempts to use FU when none available (Count)
system.cpu.statFuBusy::SimdDiv                      0      0.00%     81.33% # attempts to use FU when none available (Count)
system.cpu.statFuBusy::SimdSqrt                     0      0.00%     81.33% # attempts to use FU when none available (Count)
system.cpu.statFuBusy::SimdFloatAdd                 0      0.00%     81.33% # attempts to use FU when none available (Count)
system.cpu.statFuBusy::SimdFloatAlu                 0      0.00%     81.33% # attempts to use FU when none available (Count)
system.cpu.statFuBusy::SimdFloatCmp                 0      0.00%     81.33% # attempts to use FU when none available (Count)
system.cpu.statFuBusy::SimdFloatCvt                 0      0.00%     81.33% # attempts to use FU when none available (Count)
system.cpu.statFuBusy::SimdFloatDiv                 0      0.00%     81.33% # attempts to use FU when none available (Count)
system.cpu.statFuBusy::SimdFloatMisc                0      0.00%     81.33% # attempts to use FU when none available (Count)
system.cpu.statFuBusy::SimdFloatMult                0      0.00%     81.33% # attempts to use FU when none available (Count)
system.cpu.statFuBusy::SimdFloatMultAcc             0      0.00%     81.33% # attempts to use FU when none available (Count)
system.cpu.statFuBusy::SimdFloatSqrt                0      0.00%     81.33% # attempts to use FU when none available (Count)
system.cpu.statFuBusy::SimdReduceAdd                0      0.00%     81.33% # attempts to use FU when none available (Count)
system.cpu.statFuBusy::SimdReduceAlu                0      0.00%     81.33% # attempts to use FU when none available (Count)
system.cpu.statFuBusy::SimdReduceCmp                0      0.00%     81.33% # attempts to use FU when none available (Count)
system.cpu.statFuBusy::SimdFloatReduceAdd            0      0.00%     81.33% # attempts to use FU when none available (Count)
system.cpu.statFuBusy::SimdFloatReduceCmp            0      0.00%     81.33% # attempts to use FU when none available (Count)
system.cpu.statFuBusy::SimdAes                      0      0.00%     81.33% # attempts to use FU when none available (Count)
system.cpu.statFuBusy::SimdAesMix                   0      0.00%     81.33% # attempts to use FU when none available (Count)
system.cpu.statFuBusy::SimdSha1Hash                 0      0.00%     81.33% # attempts to use FU when none available (Count)
system.cpu.statFuBusy::SimdSha1Hash2                0      0.00%     81.33% # attempts to use FU when none available (Count)
system.cpu.statFuBusy::SimdSha256Hash               0      0.00%     81.33% # attempts to use FU when none available (Count)
system.cpu.statFuBusy::SimdSha256Hash2              0      0.00%     81.33% # attempts to use FU when none available (Count)
system.cpu.statFuBusy::SimdShaSigma2                0      0.00%     81.33% # attempts to use FU when none available (Count)
system.cpu.statFuBusy::SimdShaSigma3                0      0.00%     81.33% # attempts to use FU when none available (Count)
system.cpu.statFuBusy::SimdPredAlu                  0      0.00%     81.33% # attempts to use FU when none available (Count)
system.cpu.statFuBusy::MemRead                    217      7.91%     89.25% # attempts to use FU when none available (Count)
system.cpu.statFuBusy::MemWrite                    76      2.77%     92.02% # attempts to use FU when none available (Count)
system.cpu.statFuBusy::FloatMemRead               169      6.16%     98.18% # attempts to use FU when none available (Count)
system.cpu.statFuBusy::FloatMemWrite               50      1.82%    100.00% # attempts to use FU when none available (Count)
system.cpu.statFuBusy::IprAccess                    0      0.00%    100.00% # attempts to use FU when none available (Count)
system.cpu.statFuBusy::InstPrefetch                 0      0.00%    100.00% # attempts to use FU when none available (Count)
system.cpu.statIssuedInstType_0::No_OpClass         1496      1.30%      1.30% # Number of instructions issued per FU type, per thread (Count)
system.cpu.statIssuedInstType_0::IntAlu         61088     52.97%     54.27% # Number of instructions issued per FU type, per thread (Count)
system.cpu.statIssuedInstType_0::IntMult         1493      1.29%     55.56% # Number of instructions issued per FU type, per thread (Count)
system.cpu.statIssuedInstType_0::IntDiv           148      0.13%     55.69% # Number of instructions issued per FU type, per thread (Count)
system.cpu.statIssuedInstType_0::FloatAdd          922      0.80%     56.49% # Number of instructions issued per FU type, per thread (Count)
system.cpu.statIssuedInstType_0::FloatCmp            0      0.00%     56.49% # Number of instructions issued per FU type, per thread (Count)
system.cpu.statIssuedInstType_0::FloatCvt            0      0.00%     56.49% # Number of instructions issued per FU type, per thread (Count)
system.cpu.statIssuedInstType_0::FloatMult            0      0.00%     56.49% # Number of instructions issued per FU type, per thread (Count)
system.cpu.statIssuedInstType_0::FloatMultAcc            0      0.00%     56.49% # Number of instructions issued per FU type, per thread (Count)
system.cpu.statIssuedInstType_0::FloatDiv            0      0.00%     56.49% # Number of instructions issued per FU type, per thread (Count)
system.cpu.statIssuedInstType_0::FloatMisc            0      0.00%     56.49% # Number of instructions issued per FU type, per thread (Count)
system.cpu.statIssuedInstType_0::FloatSqrt            0      0.00%     56.49% # Number of instructions issued per FU type, per thread (Count)
system.cpu.statIssuedInstType_0::SimdAdd         2640      2.29%     58.78% # Number of instructions issued per FU type, per thread (Count)
system.cpu.statIssuedInstType_0::SimdAddAcc            0      0.00%     58.78% # Number of instructions issued per FU type, per thread (Count)
system.cpu.statIssuedInstType_0::SimdAlu          345      0.30%     59.08% # Number of instructions issued per FU type, per thread (Count)
system.cpu.statIssuedInstType_0::SimdCmp            0      0.00%     59.08% # Number of instructions issued per FU type, per thread (Count)
system.cpu.statIssuedInstType_0::SimdCvt          246      0.21%     59.29% # Number of instructions issued per FU type, per thread (Count)
system.cpu.statIssuedInstType_0::SimdMisc        11342      9.83%     69.13% # Number of instructions issued per FU type, per thread (Count)
system.cpu.statIssuedInstType_0::SimdMult         5794      5.02%     74.15% # Number of instructions issued per FU type, per thread (Count)
system.cpu.statIssuedInstType_0::SimdMultAcc            0      0.00%     74.15% # Number of instructions issued per FU type, per thread (Count)
system.cpu.statIssuedInstType_0::SimdShift         3149      2.73%     76.88% # Number of instructions issued per FU type, per thread (Count)
system.cpu.statIssuedInstType_0::SimdShiftAcc            0      0.00%     76.88% # Number of instructions issued per FU type, per thread (Count)
system.cpu.statIssuedInstType_0::SimdDiv            0      0.00%     76.88% # Number of instructions issued per FU type, per thread (Count)
system.cpu.statIssuedInstType_0::SimdSqrt            0      0.00%     76.88% # Number of instructions issued per FU type, per thread (Count)
system.cpu.statIssuedInstType_0::SimdFloatAdd            0      0.00%     76.88% # Number of instructions issued per FU type, per thread (Count)
system.cpu.statIssuedInstType_0::SimdFloatAlu            0      0.00%     76.88% # Number of instructions issued per FU type, per thread (Count)
system.cpu.statIssuedInstType_0::SimdFloatCmp            0      0.00%     76.88% # Number of instructions issued per FU type, per thread (Count)
system.cpu.statIssuedInstType_0::SimdFloatCvt            0      0.00%     76.88% # Number of instructions issued per FU type, per thread (Count)
system.cpu.statIssuedInstType_0::SimdFloatDiv            0      0.00%     76.88% # Number of instructions issued per FU type, per thread (Count)
system.cpu.statIssuedInstType_0::SimdFloatMisc            0      0.00%     76.88% # Number of instructions issued per FU type, per thread (Count)
system.cpu.statIssuedInstType_0::SimdFloatMult            0      0.00%     76.88% # Number of instructions issued per FU type, per thread (Count)
system.cpu.statIssuedInstType_0::SimdFloatMultAcc            0      0.00%     76.88% # Number of instructions issued per FU type, per thread (Count)
system.cpu.statIssuedInstType_0::SimdFloatSqrt            0      0.00%     76.88% # Number of instructions issued per FU type, per thread (Count)
system.cpu.statIssuedInstType_0::SimdReduceAdd            0      0.00%     76.88% # Number of instructions issued per FU type, per thread (Count)
system.cpu.statIssuedInstType_0::SimdReduceAlu            0      0.00%     76.88% # Number of instructions issued per FU type, per thread (Count)
system.cpu.statIssuedInstType_0::SimdReduceCmp            0      0.00%     76.88% # Number of instructions issued per FU type, per thread (Count)
system.cpu.statIssuedInstType_0::SimdFloatReduceAdd            0      0.00%     76.88% # Number of instructions issued per FU type, per thread (Count)
system.cpu.statIssuedInstType_0::SimdFloatReduceCmp            0      0.00%     76.88% # Number of instructions issued per FU type, per thread (Count)
system.cpu.statIssuedInstType_0::SimdAes            0      0.00%     76.88% # Number of instructions issued per FU type, per thread (Count)
system.cpu.statIssuedInstType_0::SimdAesMix            0      0.00%     76.88% # Number of instructions issued per FU type, per thread (Count)
system.cpu.statIssuedInstType_0::SimdSha1Hash            0      0.00%     76.88% # Number of instructions issued per FU type, per thread (Count)
system.cpu.statIssuedInstType_0::SimdSha1Hash2            0      0.00%     76.88% # Number of instructions issued per FU type, per thread (Count)
system.cpu.statIssuedInstType_0::SimdSha256Hash            0      0.00%     76.88% # Number of instructions issued per FU type, per thread (Count)
system.cpu.statIssuedInstType_0::SimdSha256Hash2            0      0.00%     76.88% # Number of instructions issued per FU type, per thread (Count)
system.cpu.statIssuedInstType_0::SimdShaSigma2            0      0.00%     76.88% # Number of instructions issued per FU type, per thread (Count)
system.cpu.statIssuedInstType_0::SimdShaSigma3            0      0.00%     76.88% # Number of instructions issued per FU type, per thread (Count)
system.cpu.statIssuedInstType_0::SimdPredAlu            0      0.00%     76.88% # Number of instructions issued per FU type, per thread (Count)
system.cpu.statIssuedInstType_0::MemRead        10520      9.12%     86.00% # Number of instructions issued per FU type, per thread (Count)
system.cpu.statIssuedInstType_0::MemWrite         5303      4.60%     90.60% # Number of instructions issued per FU type, per thread (Count)
system.cpu.statIssuedInstType_0::FloatMemRead         8531      7.40%     98.00% # Number of instructions issued per FU type, per thread (Count)
system.cpu.statIssuedInstType_0::FloatMemWrite         2309      2.00%    100.00% # Number of instructions issued per FU type, per thread (Count)
system.cpu.statIssuedInstType_0::IprAccess            0      0.00%    100.00% # Number of instructions issued per FU type, per thread (Count)
system.cpu.statIssuedInstType_0::InstPrefetch            0      0.00%    100.00% # Number of instructions issued per FU type, per thread (Count)
system.cpu.statIssuedInstType_0::total         115326                       # Number of instructions issued per FU type, per thread (Count)
system.cpu.issueRate                         1.116397                       # Inst issue rate ((Count/Cycle))
system.cpu.fuBusy                                2743                       # FU busy when requested (Count)
system.cpu.fuBusyRate                        0.023785                       # FU busy rate (busy events/executed inst) ((Count/Count))
system.cpu.intInstQueueReads                   224756                       # Number of integer instruction queue reads (Count)
system.cpu.intInstQueueWrites                  106056                       # Number of integer instruction queue writes (Count)
system.cpu.intInstQueueWakeupAccesses           70023                       # Number of integer instruction queue wakeup accesses (Count)
system.cpu.fpInstQueueReads                     85381                       # Number of floating instruction queue reads (Count)
system.cpu.fpInstQueueWrites                    43134                       # Number of floating instruction queue writes (Count)
system.cpu.fpInstQueueWakeupAccesses            41341                       # Number of floating instruction queue wakeup accesses (Count)
system.cpu.vecInstQueueReads                        0                       # Number of vector instruction queue reads (Count)
system.cpu.vecInstQueueWrites                       0                       # Number of vector instruction queue writes (Count)
system.cpu.vecInstQueueWakeupAccesses               0                       # Number of vector instruction queue wakeup accesses (Count)
system.cpu.intAluAccesses                       73034                       # Number of integer alu accesses (Count)
system.cpu.fpAluAccesses                        43539                       # Number of floating point alu accesses (Count)
system.cpu.vecAluAccesses                           0                       # Number of vector alu accesses (Count)
system.cpu.numInsts                            113775                       # Number of executed instructions (Count)
system.cpu.numLoadInsts                         18751                       # Number of load instructions executed (Count)
system.cpu.numSquashedInsts                      1551                       # Number of squashed instructions skipped in execute (Count)
system.cpu.numSwp                                   0                       # Number of swp insts executed (Count)
system.cpu.numNop                                   0                       # Number of nop insts executed (Count)
system.cpu.numRefs                              26204                       # Number of memory reference insts executed (Count)
system.cpu.numBranches                           6543                       # Number of branches executed (Count)
system.cpu.numStoreInsts                         7453                       # Number of stores executed (Count)
system.cpu.numRate                           1.101382                       # Inst execution rate ((Count/Cycle))
system.cpu.timesIdled                             522                       # Number of times that the entire CPU went into an idle state and unscheduled itself (Count)
system.cpu.idleCycles                           26740                       # Total number of cycles that the CPU has spent unscheduled due to idling (Cycle)
system.cpu.committedInsts                       44276                       # Number of Instructions Simulated (Count)
system.cpu.committedOps                         92941                       # Number of Ops (including micro ops) Simulated (Count)
system.cpu.cpi                               2.333138                       # CPI: Cycles Per Instruction ((Cycle/Count))
system.cpu.totalCpi                          2.333138                       # CPI: Total CPI of All Threads ((Cycle/Count))
system.cpu.ipc                               0.428607                       # IPC: Instructions Per Cycle ((Count/Cycle))
system.cpu.totalIpc                          0.428607                       # IPC: Total IPC of All Threads ((Count/Cycle))
system.cpu.intRegfileReads                     102429                       # Number of integer regfile reads (Count)
system.cpu.intRegfileWrites                     53141                       # Number of integer regfile writes (Count)
system.cpu.fpRegfileReads                       77344                       # Number of floating regfile reads (Count)
system.cpu.fpRegfileWrites                      38945                       # Number of floating regfile writes (Count)
system.cpu.ccRegfileReads                       30860                       # number of cc regfile reads (Count)
system.cpu.ccRegfileWrites                      22701                       # number of cc regfile writes (Count)
system.cpu.miscRegfileReads                     40757                       # number of misc regfile reads (Count)
system.cpu.MemDepUnit__0.insertedLoads          18545                       # Number of loads inserted to the mem dependence unit. (Count)
system.cpu.MemDepUnit__0.insertedStores          8327                       # Number of stores inserted to the mem dependence unit. (Count)
system.cpu.MemDepUnit__0.conflictingLoads         1424                       # Number of conflicting loads. (Count)
system.cpu.MemDepUnit__0.conflictingStores          831                       # Number of conflicting stores. (Count)
system.cpu.MemDepUnit__1.insertedLoads              0                       # Number of loads inserted to the mem dependence unit. (Count)
system.cpu.MemDepUnit__1.insertedStores             0                       # Number of stores inserted to the mem dependence unit. (Count)
system.cpu.MemDepUnit__1.conflictingLoads            0                       # Number of conflicting loads. (Count)
system.cpu.MemDepUnit__1.conflictingStores            0                       # Number of conflicting stores. (Count)
system.cpu.MemDepUnit__2.insertedLoads              0                       # Number of loads inserted to the mem dependence unit. (Count)
system.cpu.MemDepUnit__2.insertedStores             0                       # Number of stores inserted to the mem dependence unit. (Count)
system.cpu.MemDepUnit__2.conflictingLoads            0                       # Number of conflicting loads. (Count)
system.cpu.MemDepUnit__2.conflictingStores            0                       # Number of conflicting stores. (Count)
system.cpu.MemDepUnit__3.insertedLoads              0                       # Number of loads inserted to the mem dependence unit. (Count)
system.cpu.MemDepUnit__3.insertedStores             0                       # Number of stores inserted to the mem dependence unit. (Count)
system.cpu.MemDepUnit__3.conflictingLoads            0                       # Number of conflicting loads. (Count)
system.cpu.MemDepUnit__3.conflictingStores            0                       # Number of conflicting stores. (Count)
system.cpu.branchPred.lookups                    9813                       # Number of BP lookups (Count)
system.cpu.branchPred.condPredicted              6809                       # Number of conditional branches predicted (Count)
system.cpu.branchPred.condIncorrect              1087                       # Number of conditional branches incorrect (Count)
system.cpu.branchPred.BTBLookups                 4007                       # Number of BTB lookups (Count)
system.cpu.branchPred.BTBHits                    2993                       # Number of BTB hits (Count)
system.cpu.branchPred.BTBHitRatio            0.746943                       # BTB Hit Ratio (Ratio)
system.cpu.branchPred.RASUsed                     738                       # Number of times the RAS was used to get a target. (Count)
system.cpu.branchPred.RASIncorrect                  4                       # Number of incorrect RAS predictions. (Count)
system.cpu.branchPred.indirectLookups             807                       # Number of indirect predictor lookups. (Count)
system.cpu.branchPred.indirectHits                202                       # Number of indirect target hits. (Count)
system.cpu.branchPred.indirectMisses              605                       # Number of indirect misses. (Count)
system.cpu.branchPred.indirectMispredicted          146                       # Number of mispredicted indirect branches. (Count)
system.cpu.commit.commitSquashedInsts           27637                       # The number of squashed insts skipped by commit (Count)
system.cpu.commit.branchMispredicts               886                       # The number of times a branch was mispredicted (Count)
system.cpu.commit.numCommittedDist::samples        72321                       # Number of insts commited each cycle (Count)
system.cpu.commit.numCommittedDist::mean     1.285118                       # Number of insts commited each cycle (Count)
system.cpu.commit.numCommittedDist::stdev     2.485057                       # Number of insts commited each cycle (Count)
system.cpu.commit.numCommittedDist::underflows            0      0.00%      0.00% # Number of insts commited each cycle (Count)
system.cpu.commit.numCommittedDist::0           50138     69.33%     69.33% # Number of insts commited each cycle (Count)
system.cpu.commit.numCommittedDist::1            5089      7.04%     76.36% # Number of insts commited each cycle (Count)
system.cpu.commit.numCommittedDist::2            3999      5.53%     81.89% # Number of insts commited each cycle (Count)
system.cpu.commit.numCommittedDist::3            2670      3.69%     85.59% # Number of insts commited each cycle (Count)
system.cpu.commit.numCommittedDist::4            1720      2.38%     87.96% # Number of insts commited each cycle (Count)
system.cpu.commit.numCommittedDist::5             795      1.10%     89.06% # Number of insts commited each cycle (Count)
system.cpu.commit.numCommittedDist::6             834      1.15%     90.22% # Number of insts commited each cycle (Count)
system.cpu.commit.numCommittedDist::7             623      0.86%     91.08% # Number of insts commited each cycle (Count)
system.cpu.commit.numCommittedDist::8            6453      8.92%    100.00% # Number of insts commited each cycle (Count)
system.cpu.commit.numCommittedDist::overflows            0      0.00%    100.00% # Number of insts commited each cycle (Count)
system.cpu.commit.numCommittedDist::min_value            0                       # Number of insts commited each cycle (Count)
system.cpu.commit.numCommittedDist::max_value            8                       # Number of insts commited each cycle (Count)
system.cpu.commit.numCommittedDist::total        72321                       # Number of insts commited each cycle (Count)
system.cpu.commit.instsCommitted                44276                       # Number of instructions committed (Count)
system.cpu.commit.opsCommitted                  92941                       # Number of ops (including micro ops) committed (Count)
system.cpu.commit.memRefs                       21165                       # Number of memory references committed (Count)
system.cpu.commit.loads                         14831                       # Number of loads committed (Count)
system.cpu.commit.amos                              0                       # Number of atomic instructions committed (Count)
system.cpu.commit.membars                           0                       # Number of memory barriers committed (Count)
system.cpu.commit.branches                       4854                       # Number of branches committed (Count)
system.cpu.commit.vectorInstructions                0                       # Number of committed Vector instructions. (Count)
system.cpu.commit.floating                      40942                       # Number of committed floating point instructions. (Count)
system.cpu.commit.integer                       62449                       # Number of committed integer instructions. (Count)
system.cpu.commit.functionCalls                   380                       # Number of function calls committed. (Count)
system.cpu.commit.committedInstType_0::No_OpClass          572      0.62%      0.62% # Class of committed instruction (Count)
system.cpu.commit.committedInstType_0::IntAlu        45377     48.82%     49.44% # Class of committed instruction (Count)
system.cpu.commit.committedInstType_0::IntMult         1491      1.60%     51.04% # Class of committed instruction (Count)
system.cpu.commit.committedInstType_0::IntDiv           98      0.11%     51.15% # Class of committed instruction (Count)
system.cpu.commit.committedInstType_0::FloatAdd          898      0.97%     52.11% # Class of committed instruction (Count)
system.cpu.commit.committedInstType_0::FloatCmp            0      0.00%     52.11% # Class of committed instruction (Count)
system.cpu.commit.committedInstType_0::FloatCvt            0      0.00%     52.11% # Class of committed instruction (Count)
system.cpu.commit.committedInstType_0::FloatMult            0      0.00%     52.11% # Class of committed instruction (Count)
system.cpu.commit.committedInstType_0::FloatMultAcc            0      0.00%     52.11% # Class of committed instruction (Count)
system.cpu.commit.committedInstType_0::FloatDiv            0      0.00%     52.11% # Class of committed instruction (Count)
system.cpu.commit.committedInstType_0::FloatMisc            0      0.00%     52.11% # Class of committed instruction (Count)
system.cpu.commit.committedInstType_0::FloatSqrt            0      0.00%     52.11% # Class of committed instruction (Count)
system.cpu.commit.committedInstType_0::SimdAdd         2640      2.84%     54.96% # Class of committed instruction (Count)
system.cpu.commit.committedInstType_0::SimdAddAcc            0      0.00%     54.96% # Class of committed instruction (Count)
system.cpu.commit.committedInstType_0::SimdAlu          262      0.28%     55.24% # Class of committed instruction (Count)
system.cpu.commit.committedInstType_0::SimdCmp            0      0.00%     55.24% # Class of committed instruction (Count)
system.cpu.commit.committedInstType_0::SimdCvt          242      0.26%     55.50% # Class of committed instruction (Count)
system.cpu.commit.committedInstType_0::SimdMisc        11296     12.15%     67.65% # Class of committed instruction (Count)
system.cpu.commit.committedInstType_0::SimdMult         5760      6.20%     73.85% # Class of committed instruction (Count)
system.cpu.commit.committedInstType_0::SimdMultAcc            0      0.00%     73.85% # Class of committed instruction (Count)
system.cpu.commit.committedInstType_0::SimdShift         3140      3.38%     77.23% # Class of committed instruction (Count)
system.cpu.commit.committedInstType_0::SimdShiftAcc            0      0.00%     77.23% # Class of committed instruction (Count)
system.cpu.commit.committedInstType_0::SimdDiv            0      0.00%     77.23% # Class of committed instruction (Count)
system.cpu.commit.committedInstType_0::SimdSqrt            0      0.00%     77.23% # Class of committed instruction (Count)
system.cpu.commit.committedInstType_0::SimdFloatAdd            0      0.00%     77.23% # Class of committed instruction (Count)
system.cpu.commit.committedInstType_0::SimdFloatAlu            0      0.00%     77.23% # Class of committed instruction (Count)
system.cpu.commit.committedInstType_0::SimdFloatCmp            0      0.00%     77.23% # Class of committed instruction (Count)
system.cpu.commit.committedInstType_0::SimdFloatCvt            0      0.00%     77.23% # Class of committed instruction (Count)
system.cpu.commit.committedInstType_0::SimdFloatDiv            0      0.00%     77.23% # Class of committed instruction (Count)
system.cpu.commit.committedInstType_0::SimdFloatMisc            0      0.00%     77.23% # Class of committed instruction (Count)
system.cpu.commit.committedInstType_0::SimdFloatMult            0      0.00%     77.23% # Class of committed instruction (Count)
system.cpu.commit.committedInstType_0::SimdFloatMultAcc            0      0.00%     77.23% # Class of committed instruction (Count)
system.cpu.commit.committedInstType_0::SimdFloatSqrt            0      0.00%     77.23% # Class of committed instruction (Count)
system.cpu.commit.committedInstType_0::SimdReduceAdd            0      0.00%     77.23% # Class of committed instruction (Count)
system.cpu.commit.committedInstType_0::SimdReduceAlu            0      0.00%     77.23% # Class of committed instruction (Count)
system.cpu.commit.committedInstType_0::SimdReduceCmp            0      0.00%     77.23% # Class of committed instruction (Count)
system.cpu.commit.committedInstType_0::SimdFloatReduceAdd            0      0.00%     77.23% # Class of committed instruction (Count)
system.cpu.commit.committedInstType_0::SimdFloatReduceCmp            0      0.00%     77.23% # Class of committed instruction (Count)
system.cpu.commit.committedInstType_0::SimdAes            0      0.00%     77.23% # Class of committed instruction (Count)
system.cpu.commit.committedInstType_0::SimdAesMix            0      0.00%     77.23% # Class of committed instruction (Count)
system.cpu.commit.committedInstType_0::SimdSha1Hash            0      0.00%     77.23% # Class of committed instruction (Count)
system.cpu.commit.committedInstType_0::SimdSha1Hash2            0      0.00%     77.23% # Class of committed instruction (Count)
system.cpu.commit.committedInstType_0::SimdSha256Hash            0      0.00%     77.23% # Class of committed instruction (Count)
system.cpu.commit.committedInstType_0::SimdSha256Hash2            0      0.00%     77.23% # Class of committed instruction (Count)
system.cpu.commit.committedInstType_0::SimdShaSigma2            0      0.00%     77.23% # Class of committed instruction (Count)
system.cpu.commit.committedInstType_0::SimdShaSigma3            0      0.00%     77.23% # Class of committed instruction (Count)
system.cpu.commit.committedInstType_0::SimdPredAlu            0      0.00%     77.23% # Class of committed instruction (Count)
system.cpu.commit.committedInstType_0::MemRead         6813      7.33%     84.56% # Class of committed instruction (Count)
system.cpu.commit.committedInstType_0::MemWrite         4155      4.47%     89.03% # Class of committed instruction (Count)
system.cpu.commit.committedInstType_0::FloatMemRead         8018      8.63%     97.66% # Class of committed instruction (Count)
system.cpu.commit.committedInstType_0::FloatMemWrite         2179      2.34%    100.00% # Class of committed instruction (Count)
system.cpu.commit.committedInstType_0::IprAccess            0      0.00%    100.00% # Class of committed instruction (Count)
system.cpu.commit.committedInstType_0::InstPrefetch            0      0.00%    100.00% # Class of committed instruction (Count)
system.cpu.commit.committedInstType_0::total        92941                       # Class of committed instruction (Count)
system.cpu.commit.commitEligibleSamples          6453                       # number cycles where commit BW limit reached (Cycle)
system.cpu.dcache.demandHits::cpu.data          16743                       # number of demand (read+write) hits (Count)
system.cpu.dcache.demandHits::total             16743                       # number of demand (read+write) hits (Count)
system.cpu.dcache.overallHits::cpu.data         16743                       # number of overall hits (Count)
system.cpu.dcache.overallHits::total            16743                       # number of overall hits (Count)
system.cpu.dcache.demandMisses::cpu.data         4354                       # number of demand (read+write) misses (Count)
system.cpu.dcache.demandMisses::total            4354                       # number of demand (read+write) misses (Count)
system.cpu.dcache.overallMisses::cpu.data         4354                       # number of overall misses (Count)
system.cpu.dcache.overallMisses::total           4354                       # number of overall misses (Count)
system.cpu.dcache.demandMissLatency::cpu.data    156096992                       # number of demand (read+write) miss ticks (Tick)
system.cpu.dcache.demandMissLatency::total    156096992                       # number of demand (read+write) miss ticks (Tick)
system.cpu.dcache.overallMissLatency::cpu.data    156096992                       # number of overall miss ticks (Tick)
system.cpu.dcache.overallMissLatency::total    156096992                       # number of overall miss ticks (Tick)
system.cpu.dcache.demandAccesses::cpu.data        21097                       # number of demand (read+write) accesses (Count)
system.cpu.dcache.demandAccesses::total         21097                       # number of demand (read+write) accesses (Count)
system.cpu.dcache.overallAccesses::cpu.data        21097                       # number of overall (read+write) accesses (Count)
system.cpu.dcache.overallAccesses::total        21097                       # number of overall (read+write) accesses (Count)
system.cpu.dcache.demandMissRate::cpu.data     0.206380                       # miss rate for demand accesses (Ratio)
system.cpu.dcache.demandMissRate::total      0.206380                       # miss rate for demand accesses (Ratio)
system.cpu.dcache.overallMissRate::cpu.data     0.206380                       # miss rate for overall accesses (Ratio)
system.cpu.dcache.overallMissRate::total     0.206380                       # miss rate for overall accesses (Ratio)
system.cpu.dcache.demandAvgMissLatency::cpu.data 35851.399173                       # average overall miss latency in ticks ((Tick/Count))
system.cpu.dcache.demandAvgMissLatency::total 35851.399173                       # average overall miss latency in ticks ((Tick/Count))
system.cpu.dcache.overallAvgMissLatency::cpu.data 35851.399173                       # average overall miss latency ((Tick/Count))
system.cpu.dcache.overallAvgMissLatency::total 35851.399173                       # average overall miss latency ((Tick/Count))
system.cpu.dcache.blockedCycles::no_mshrs         2920                       # number of cycles access was blocked (Cycle)
system.cpu.dcache.blockedCycles::no_targets            0                       # number of cycles access was blocked (Cycle)
system.cpu.dcache.blockedCauses::no_mshrs          299                       # number of times access was blocked (Count)
system.cpu.dcache.blockedCauses::no_targets            0                       # number of times access was blocked (Count)
system.cpu.dcache.avgBlocked::no_mshrs       9.765886                       # average number of cycles each access was blocked ((Cycle/Count))
system.cpu.dcache.avgBlocked::no_targets          nan                       # average number of cycles each access was blocked ((Cycle/Count))
system.cpu.dcache.writebacks::writebacks         1937                       # number of writebacks (Count)
system.cpu.dcache.writebacks::total              1937                       # number of writebacks (Count)
system.cpu.dcache.demandMshrHits::cpu.data         1992                       # number of demand (read+write) MSHR hits (Count)
system.cpu.dcache.demandMshrHits::total          1992                       # number of demand (read+write) MSHR hits (Count)
system.cpu.dcache.overallMshrHits::cpu.data         1992                       # number of overall MSHR hits (Count)
system.cpu.dcache.overallMshrHits::total         1992                       # number of overall MSHR hits (Count)
system.cpu.dcache.demandMshrMisses::cpu.data         2362                       # number of demand (read+write) MSHR misses (Count)
system.cpu.dcache.demandMshrMisses::total         2362                       # number of demand (read+write) MSHR misses (Count)
system.cpu.dcache.overallMshrMisses::cpu.data         2362                       # number of overall MSHR misses (Count)
system.cpu.dcache.overallMshrMisses::total         2362                       # number of overall MSHR misses (Count)
system.cpu.dcache.demandMshrMissLatency::cpu.data     92267994                       # number of demand (read+write) MSHR miss ticks (Tick)
system.cpu.dcache.demandMshrMissLatency::total     92267994                       # number of demand (read+write) MSHR miss ticks (Tick)
system.cpu.dcache.overallMshrMissLatency::cpu.data     92267994                       # number of overall MSHR miss ticks (Tick)
system.cpu.dcache.overallMshrMissLatency::total     92267994                       # number of overall MSHR miss ticks (Tick)
system.cpu.dcache.demandMshrMissRate::cpu.data     0.111959                       # mshr miss ratio for demand accesses (Ratio)
system.cpu.dcache.demandMshrMissRate::total     0.111959                       # mshr miss ratio for demand accesses (Ratio)
system.cpu.dcache.overallMshrMissRate::cpu.data     0.111959                       # mshr miss ratio for overall accesses (Ratio)
system.cpu.dcache.overallMshrMissRate::total     0.111959                       # mshr miss ratio for overall accesses (Ratio)
system.cpu.dcache.demandAvgMshrMissLatency::cpu.data 39063.502964                       # average overall mshr miss latency ((Tick/Count))
system.cpu.dcache.demandAvgMshrMissLatency::total 39063.502964                       # average overall mshr miss latency ((Tick/Count))
system.cpu.dcache.overallAvgMshrMissLatency::cpu.data 39063.502964                       # average overall mshr miss latency ((Tick/Count))
system.cpu.dcache.overallAvgMshrMissLatency::total 39063.502964                       # average overall mshr miss latency ((Tick/Count))
system.cpu.dcache.replacements                   2346                       # number of replacements (Count)
system.cpu.dcache.ReadReq.hits::cpu.data        11204                       # number of ReadReq hits (Count)
system.cpu.dcache.ReadReq.hits::total           11204                       # number of ReadReq hits (Count)
system.cpu.dcache.ReadReq.misses::cpu.data         3558                       # number of ReadReq misses (Count)
system.cpu.dcache.ReadReq.misses::total          3558                       # number of ReadReq misses (Count)
system.cpu.dcache.ReadReq.missLatency::cpu.data    117536000                       # number of ReadReq miss ticks (Tick)
system.cpu.dcache.ReadReq.missLatency::total    117536000                       # number of ReadReq miss ticks (Tick)
system.cpu.dcache.ReadReq.accesses::cpu.data        14762                       # number of ReadReq accesses(hits+misses) (Count)
system.cpu.dcache.ReadReq.accesses::total        14762                       # number of ReadReq accesses(hits+misses) (Count)
system.cpu.dcache.ReadReq.missRate::cpu.data     0.241024                       # miss rate for ReadReq accesses (Ratio)
system.cpu.dcache.ReadReq.missRate::total     0.241024                       # miss rate for ReadReq accesses (Ratio)
system.cpu.dcache.ReadReq.avgMissLatency::cpu.data 33034.288926                       # average ReadReq miss latency ((Tick/Count))
system.cpu.dcache.ReadReq.avgMissLatency::total 33034.288926                       # average ReadReq miss latency ((Tick/Count))
system.cpu.dcache.ReadReq.mshrHits::cpu.data         1979                       # number of ReadReq MSHR hits (Count)
system.cpu.dcache.ReadReq.mshrHits::total         1979                       # number of ReadReq MSHR hits (Count)
system.cpu.dcache.ReadReq.mshrMisses::cpu.data         1579                       # number of ReadReq MSHR misses (Count)
system.cpu.dcache.ReadReq.mshrMisses::total         1579                       # number of ReadReq MSHR misses (Count)
system.cpu.dcache.ReadReq.mshrMissLatency::cpu.data     55634000                       # number of ReadReq MSHR miss ticks (Tick)
system.cpu.dcache.ReadReq.mshrMissLatency::total     55634000                       # number of ReadReq MSHR miss ticks (Tick)
system.cpu.dcache.ReadReq.mshrMissRate::cpu.data     0.106964                       # mshr miss rate for ReadReq accesses (Ratio)
system.cpu.dcache.ReadReq.mshrMissRate::total     0.106964                       # mshr miss rate for ReadReq accesses (Ratio)
system.cpu.dcache.ReadReq.avgMshrMissLatency::cpu.data 35233.692210                       # average ReadReq mshr miss latency ((Tick/Count))
system.cpu.dcache.ReadReq.avgMshrMissLatency::total 35233.692210                       # average ReadReq mshr miss latency ((Tick/Count))
system.cpu.dcache.WriteReq.hits::cpu.data         5539                       # number of WriteReq hits (Count)
system.cpu.dcache.WriteReq.hits::total           5539                       # number of WriteReq hits (Count)
system.cpu.dcache.WriteReq.misses::cpu.data          796                       # number of WriteReq misses (Count)
system.cpu.dcache.WriteReq.misses::total          796                       # number of WriteReq misses (Count)
system.cpu.dcache.WriteReq.missLatency::cpu.data     38560992                       # number of WriteReq miss ticks (Tick)
system.cpu.dcache.WriteReq.missLatency::total     38560992                       # number of WriteReq miss ticks (Tick)
system.cpu.dcache.WriteReq.accesses::cpu.data         6335                       # number of WriteReq accesses(hits+misses) (Count)
system.cpu.dcache.WriteReq.accesses::total         6335                       # number of WriteReq accesses(hits+misses) (Count)
system.cpu.dcache.WriteReq.missRate::cpu.data     0.125651                       # miss rate for WriteReq accesses (Ratio)
system.cpu.dcache.WriteReq.missRate::total     0.125651                       # miss rate for WriteReq accesses (Ratio)
system.cpu.dcache.WriteReq.avgMissLatency::cpu.data 48443.457286                       # average WriteReq miss latency ((Tick/Count))
system.cpu.dcache.WriteReq.avgMissLatency::total 48443.457286                       # average WriteReq miss latency ((Tick/Count))
system.cpu.dcache.WriteReq.mshrHits::cpu.data           13                       # number of WriteReq MSHR hits (Count)
system.cpu.dcache.WriteReq.mshrHits::total           13                       # number of WriteReq MSHR hits (Count)
system.cpu.dcache.WriteReq.mshrMisses::cpu.data          783                       # number of WriteReq MSHR misses (Count)
system.cpu.dcache.WriteReq.mshrMisses::total          783                       # number of WriteReq MSHR misses (Count)
system.cpu.dcache.WriteReq.mshrMissLatency::cpu.data     36633994                       # number of WriteReq MSHR miss ticks (Tick)
system.cpu.dcache.WriteReq.mshrMissLatency::total     36633994                       # number of WriteReq MSHR miss ticks (Tick)
system.cpu.dcache.WriteReq.mshrMissRate::cpu.data     0.123599                       # mshr miss rate for WriteReq accesses (Ratio)
system.cpu.dcache.WriteReq.mshrMissRate::total     0.123599                       # mshr miss rate for WriteReq accesses (Ratio)
system.cpu.dcache.WriteReq.avgMshrMissLatency::cpu.data 46786.710089                       # average WriteReq mshr miss latency ((Tick/Count))
system.cpu.dcache.WriteReq.avgMshrMissLatency::total 46786.710089                       # average WriteReq mshr miss latency ((Tick/Count))
system.cpu.dcache.power_state.pwrStateResidencyTicks::UNDEFINED    103301000                       # Cumulative time (in ticks) in various power states (Tick)
system.cpu.dcache.tags.tagsInUse            15.829556                       # Average ticks per tags in use ((Tick/Count))
system.cpu.dcache.tags.totalRefs                19105                       # Total number of references to valid blocks. (Count)
system.cpu.dcache.tags.sampledRefs               2362                       # Sample count of references to valid blocks. (Count)
system.cpu.dcache.tags.avgRefs               8.088484                       # Average number of references to valid blocks. ((Count/Count))
system.cpu.dcache.tags.warmupTick              222000                       # The tick when the warmup percentage was hit. (Tick)
system.cpu.dcache.tags.occupancies::cpu.data    15.829556                       # Average occupied blocks per tick, per requestor ((Count/Tick))
system.cpu.dcache.tags.avgOccs::cpu.data     0.989347                       # Average percentage of cache occupancy ((Ratio/Tick))
system.cpu.dcache.tags.avgOccs::total        0.989347                       # Average percentage of cache occupancy ((Ratio/Tick))
system.cpu.dcache.tags.occupanciesTaskId::1024           16                       # Occupied blocks per task id (Count)
system.cpu.dcache.tags.ageTaskId_1024::0           16                       # Occupied blocks per task id, per block age (Count)
system.cpu.dcache.tags.ratioOccsTaskId::1024            1                       # Ratio of occupied blocks and all blocks, per task id (Ratio)
system.cpu.dcache.tags.tagAccesses              44556                       # Number of tag accesses (Count)
system.cpu.dcache.tags.dataAccesses             44556                       # Number of data accesses (Count)
system.cpu.dcache.tags.power_state.pwrStateResidencyTicks::UNDEFINED    103301000                       # Cumulative time (in ticks) in various power states (Tick)
system.cpu.decode.idleCycles                    30172                       # Number of cycles decode is idle (Cycle)
system.cpu.decode.blockedCycles                 27004                       # Number of cycles decode is blocked (Cycle)
system.cpu.decode.runCycles                     14491                       # Number of cycles decode is running (Cycle)
system.cpu.decode.unblockCycles                  3934                       # Number of cycles decode is unblocking (Cycle)
system.cpu.decode.squashCycles                    961                       # Number of cycles decode is squashing (Cycle)
system.cpu.decode.branchResolved                 3105                       # Number of times decode resolved a branch (Count)
system.cpu.decode.branchMispred                   296                       # Number of times decode detected a branch misprediction (Count)
system.cpu.decode.decodedInsts                 128381                       # Number of instructions handled by decode (Count)
system.cpu.decode.squashedInsts                  1382                       # Number of squashed instructions handled by decode (Count)
system.cpu.fetch.icacheStallCycles              32750                       # Number of cycles fetch is stalled on an Icache miss (Cycle)
system.cpu.fetch.insts                          66245                       # Number of instructions fetch has processed (Count)
system.cpu.fetch.branches                        9813                       # Number of branches that fetch encountered (Count)
system.cpu.fetch.predictedBranches               3933                       # Number of branches that fetch has predicted taken (Count)
system.cpu.fetch.cycles                         41815                       # Number of cycles fetch has run and was not squashing or blocked (Cycle)
system.cpu.fetch.squashCycles                    2502                       # Number of cycles fetch has spent squashing (Cycle)
system.cpu.fetch.miscStallCycles                  106                       # Number of cycles fetch has spent waiting on interrupts, or bad addresses, or out of MSHRs (Cycle)
system.cpu.fetch.pendingTrapStallCycles           629                       # Number of stall cycles due to pending traps (Cycle)
system.cpu.fetch.icacheWaitRetryStallCycles           11                       # Number of stall cycles due to full MSHR (Cycle)
system.cpu.fetch.cacheLines                      8973                       # Number of cache lines fetched (Count)
system.cpu.fetch.icacheSquashes                   596                       # Number of outstanding Icache misses that were squashed (Count)
system.cpu.fetch.nisnDist::samples              76562                       # Number of instructions fetched each cycle (Total) (Count)
system.cpu.fetch.nisnDist::mean              1.765732                       # Number of instructions fetched each cycle (Total) (Count)
system.cpu.fetch.nisnDist::stdev             3.096229                       # Number of instructions fetched each cycle (Total) (Count)
system.cpu.fetch.nisnDist::underflows               0      0.00%      0.00% # Number of instructions fetched each cycle (Total) (Count)
system.cpu.fetch.nisnDist::0                    55331     72.27%     72.27% # Number of instructions fetched each cycle (Total) (Count)
system.cpu.fetch.nisnDist::1                     1027      1.34%     73.61% # Number of instructions fetched each cycle (Total) (Count)
system.cpu.fetch.nisnDist::2                     1025      1.34%     74.95% # Number of instructions fetched each cycle (Total) (Count)
system.cpu.fetch.nisnDist::3                     1510      1.97%     76.92% # Number of instructions fetched each cycle (Total) (Count)
system.cpu.fetch.nisnDist::4                     1659      2.17%     79.09% # Number of instructions fetched each cycle (Total) (Count)
system.cpu.fetch.nisnDist::5                     1219      1.59%     80.68% # Number of instructions fetched each cycle (Total) (Count)
system.cpu.fetch.nisnDist::6                     1239      1.62%     82.30% # Number of instructions fetched each cycle (Total) (Count)
system.cpu.fetch.nisnDist::7                     1000      1.31%     83.61% # Number of instructions fetched each cycle (Total) (Count)
system.cpu.fetch.nisnDist::8                    12552     16.39%    100.00% # Number of instructions fetched each cycle (Total) (Count)
system.cpu.fetch.nisnDist::overflows                0      0.00%    100.00% # Number of instructions fetched each cycle (Total) (Count)
system.cpu.fetch.nisnDist::min_value                0                       # Number of instructions fetched each cycle (Total) (Count)
system.cpu.fetch.nisnDist::max_value                8                       # Number of instructions fetched each cycle (Total) (Count)
system.cpu.fetch.nisnDist::total                76562                       # Number of instructions fetched each cycle (Total) (Count)
system.cpu.fetch.branchRate                  0.094993                       # Number of branch fetches per cycle (Ratio)
system.cpu.fetch.rate                        0.641275                       # Number of inst fetches per cycle ((Count/Cycle))
system.cpu.icache.demandHits::cpu.inst           7994                       # number of demand (read+write) hits (Count)
system.cpu.icache.demandHits::total              7994                       # number of demand (read+write) hits (Count)
system.cpu.icache.overallHits::cpu.inst          7994                       # number of overall hits (Count)
system.cpu.icache.overallHits::total             7994                       # number of overall hits (Count)
system.cpu.icache.demandMisses::cpu.inst          979                       # number of demand (read+write) misses (Count)
system.cpu.icache.demandMisses::total             979                       # number of demand (read+write) misses (Count)
system.cpu.icache.overallMisses::cpu.inst          979                       # number of overall misses (Count)
system.cpu.icache.overallMisses::total            979                       # number of overall misses (Count)
system.cpu.icache.demandMissLatency::cpu.inst     85704000                       # number of demand (read+write) miss ticks (Tick)
system.cpu.icache.demandMissLatency::total     85704000                       # number of demand (read+write) miss ticks (Tick)
system.cpu.icache.overallMissLatency::cpu.inst     85704000                       # number of overall miss ticks (Tick)
system.cpu.icache.overallMissLatency::total     85704000                       # number of overall miss ticks (Tick)
system.cpu.icache.demandAccesses::cpu.inst         8973                       # number of demand (read+write) accesses (Count)
system.cpu.icache.demandAccesses::total          8973                       # number of demand (read+write) accesses (Count)
system.cpu.icache.overallAccesses::cpu.inst         8973                       # number of overall (read+write) accesses (Count)
system.cpu.icache.overallAccesses::total         8973                       # number of overall (read+write) accesses (Count)
system.cpu.icache.demandMissRate::cpu.inst     0.109105                       # miss rate for demand accesses (Ratio)
system.cpu.icache.demandMissRate::total      0.109105                       # miss rate for demand accesses (Ratio)
system.cpu.icache.overallMissRate::cpu.inst     0.109105                       # miss rate for overall accesses (Ratio)
system.cpu.icache.overallMissRate::total     0.109105                       # miss rate for overall accesses (Ratio)
system.cpu.icache.demandAvgMissLatency::cpu.inst 87542.390194                       # average overall miss latency in ticks ((Tick/Count))
system.cpu.icache.demandAvgMissLatency::total 87542.390194                       # average overall miss latency in ticks ((Tick/Count))
system.cpu.icache.overallAvgMissLatency::cpu.inst 87542.390194                       # average overall miss latency ((Tick/Count))
system.cpu.icache.overallAvgMissLatency::total 87542.390194                       # average overall miss latency ((Tick/Count))
system.cpu.icache.blockedCycles::no_mshrs          193                       # number of cycles access was blocked (Cycle)
system.cpu.icache.blockedCycles::no_targets            0                       # number of cycles access was blocked (Cycle)
system.cpu.icache.blockedCauses::no_mshrs            4                       # number of times access was blocked (Count)
system.cpu.icache.blockedCauses::no_targets            0                       # number of times access was blocked (Count)
system.cpu.icache.avgBlocked::no_mshrs      48.250000                       # average number of cycles each access was blocked ((Cycle/Count))
system.cpu.icache.avgBlocked::no_targets          nan                       # average number of cycles each access was blocked ((Cycle/Count))
system.cpu.icache.demandMshrHits::cpu.inst          164                       # number of demand (read+write) MSHR hits (Count)
system.cpu.icache.demandMshrHits::total           164                       # number of demand (read+write) MSHR hits (Count)
system.cpu.icache.overallMshrHits::cpu.inst          164                       # number of overall MSHR hits (Count)
system.cpu.icache.overallMshrHits::total          164                       # number of overall MSHR hits (Count)
system.cpu.icache.demandMshrMisses::cpu.inst          815                       # number of demand (read+write) MSHR misses (Count)
system.cpu.icache.demandMshrMisses::total          815                       # number of demand (read+write) MSHR misses (Count)
system.cpu.icache.overallMshrMisses::cpu.inst          815                       # number of overall MSHR misses (Count)
system.cpu.icache.overallMshrMisses::total          815                       # number of overall MSHR misses (Count)
system.cpu.icache.demandMshrMissLatency::cpu.inst     72142000                       # number of demand (read+write) MSHR miss ticks (Tick)
system.cpu.icache.demandMshrMissLatency::total     72142000                       # number of demand (read+write) MSHR miss ticks (Tick)
system.cpu.icache.overallMshrMissLatency::cpu.inst     72142000                       # number of overall MSHR miss ticks (Tick)
system.cpu.icache.overallMshrMissLatency::total     72142000                       # number of overall MSHR miss ticks (Tick)
system.cpu.icache.demandMshrMissRate::cpu.inst     0.090828                       # mshr miss ratio for demand accesses (Ratio)
system.cpu.icache.demandMshrMissRate::total     0.090828                       # mshr miss ratio for demand accesses (Ratio)
system.cpu.icache.overallMshrMissRate::cpu.inst     0.090828                       # mshr miss ratio for overall accesses (Ratio)
system.cpu.icache.overallMshrMissRate::total     0.090828                       # mshr miss ratio for overall accesses (Ratio)
system.cpu.icache.demandAvgMshrMissLatency::cpu.inst 88517.791411                       # average overall mshr miss latency ((Tick/Count))
system.cpu.icache.demandAvgMshrMissLatency::total 88517.791411                       # average overall mshr miss latency ((Tick/Count))
system.cpu.icache.overallAvgMshrMissLatency::cpu.inst 88517.791411                       # average overall mshr miss latency ((Tick/Count))
system.cpu.icache.overallAvgMshrMissLatency::total 88517.791411                       # average overall mshr miss latency ((Tick/Count))
system.cpu.icache.replacements                    559                       # number of replacements (Count)
system.cpu.icache.ReadReq.hits::cpu.inst         7994                       # number of ReadReq hits (Count)
system.cpu.icache.ReadReq.hits::total            7994                       # number of ReadReq hits (Count)
system.cpu.icache.ReadReq.misses::cpu.inst          979                       # number of ReadReq misses (Count)
system.cpu.icache.ReadReq.misses::total           979                       # number of ReadReq misses (Count)
system.cpu.icache.ReadReq.missLatency::cpu.inst     85704000                       # number of ReadReq miss ticks (Tick)
system.cpu.icache.ReadReq.missLatency::total     85704000                       # number of ReadReq miss ticks (Tick)
system.cpu.icache.ReadReq.accesses::cpu.inst         8973                       # number of ReadReq accesses(hits+misses) (Count)
system.cpu.icache.ReadReq.accesses::total         8973                       # number of ReadReq accesses(hits+misses) (Count)
system.cpu.icache.ReadReq.missRate::cpu.inst     0.109105                       # miss rate for ReadReq accesses (Ratio)
system.cpu.icache.ReadReq.missRate::total     0.109105                       # miss rate for ReadReq accesses (Ratio)
system.cpu.icache.ReadReq.avgMissLatency::cpu.inst 87542.390194                       # average ReadReq miss latency ((Tick/Count))
system.cpu.icache.ReadReq.avgMissLatency::total 87542.390194                       # average ReadReq miss latency ((Tick/Count))
system.cpu.icache.ReadReq.mshrHits::cpu.inst          164                       # number of ReadReq MSHR hits (Count)
system.cpu.icache.ReadReq.mshrHits::total          164                       # number of ReadReq MSHR hits (Count)
system.cpu.icache.ReadReq.mshrMisses::cpu.inst          815                       # number of ReadReq MSHR misses (Count)
system.cpu.icache.ReadReq.mshrMisses::total          815                       # number of ReadReq MSHR misses (Count)
system.cpu.icache.ReadReq.mshrMissLatency::cpu.inst     72142000                       # number of ReadReq MSHR miss ticks (Tick)
system.cpu.icache.ReadReq.mshrMissLatency::total     72142000                       # number of ReadReq MSHR miss ticks (Tick)
system.cpu.icache.ReadReq.mshrMissRate::cpu.inst     0.090828                       # mshr miss rate for ReadReq accesses (Ratio)
system.cpu.icache.ReadReq.mshrMissRate::total     0.090828                       # mshr miss rate for ReadReq accesses (Ratio)
system.cpu.icache.ReadReq.avgMshrMissLatency::cpu.inst 88517.791411                       # average ReadReq mshr miss latency ((Tick/Count))
system.cpu.icache.ReadReq.avgMshrMissLatency::total 88517.791411                       # average ReadReq mshr miss latency ((Tick/Count))
system.cpu.icache.power_state.pwrStateResidencyTicks::UNDEFINED    103301000                       # Cumulative time (in ticks) in various power states (Tick)
system.cpu.icache.tags.tagsInUse           205.588949                       # Average ticks per tags in use ((Tick/Count))
system.cpu.icache.tags.totalRefs                 8808                       # Total number of references to valid blocks. (Count)
system.cpu.icache.tags.sampledRefs                814                       # Sample count of references to valid blocks. (Count)
system.cpu.icache.tags.avgRefs              10.820639                       # Average number of references to valid blocks. ((Count/Count))
system.cpu.icache.tags.warmupTick              107000                       # The tick when the warmup percentage was hit. (Tick)
system.cpu.icache.tags.occupancies::cpu.inst   205.588949                       # Average occupied blocks per tick, per requestor ((Count/Tick))
system.cpu.icache.tags.avgOccs::cpu.inst     0.803082                       # Average percentage of cache occupancy ((Ratio/Tick))
system.cpu.icache.tags.avgOccs::total        0.803082                       # Average percentage of cache occupancy ((Ratio/Tick))
system.cpu.icache.tags.occupanciesTaskId::1024          255                       # Occupied blocks per task id (Count)
system.cpu.icache.tags.ageTaskId_1024::0           76                       # Occupied blocks per task id, per block age (Count)
system.cpu.icache.tags.ageTaskId_1024::1          179                       # Occupied blocks per task id, per block age (Count)
system.cpu.icache.tags.ratioOccsTaskId::1024     0.996094                       # Ratio of occupied blocks and all blocks, per task id (Ratio)
system.cpu.icache.tags.tagAccesses              18760                       # Number of tag accesses (Count)
system.cpu.icache.tags.dataAccesses             18760                       # Number of data accesses (Count)
system.cpu.icache.tags.power_state.pwrStateResidencyTicks::UNDEFINED    103301000                       # Cumulative time (in ticks) in various power states (Tick)
system.cpu.iew.idleCycles                           0                       # Number of cycles IEW is idle (Cycle)
system.cpu.iew.squashCycles                       961                       # Number of cycles IEW is squashing (Cycle)
system.cpu.iew.blockCycles                       5485                       # Number of cycles IEW is blocking (Cycle)
system.cpu.iew.unblockCycles                     2554                       # Number of cycles IEW is unblocking (Cycle)
system.cpu.iew.dispatchedInsts                 121036                       # Number of instructions dispatched to IQ (Count)
system.cpu.iew.dispSquashedInsts                  150                       # Number of squashed instructions skipped by dispatch (Count)
system.cpu.iew.dispLoadInsts                    18545                       # Number of dispatched load instructions (Count)
system.cpu.iew.dispStoreInsts                    8327                       # Number of dispatched store instructions (Count)
system.cpu.iew.dispNonSpecInsts                     0                       # Number of dispatched non-speculative instructions (Count)
system.cpu.iew.iqFullEvents                       115                       # Number of times the IQ has become full, causing a stall (Count)
system.cpu.iew.lsqFullEvents                     2372                       # Number of times the LSQ has become full, causing a stall (Count)
system.cpu.iew.memOrderViolationEvents             71                       # Number of memory order violations (Count)
system.cpu.iew.predictedTakenIncorrect            120                       # Number of branches that were predicted taken incorrectly (Count)
system.cpu.iew.predictedNotTakenIncorrect          938                       # Number of branches that were predicted not taken incorrectly (Count)
system.cpu.iew.branchMispredicts                 1058                       # Number of branch mispredicts detected at execute (Count)
system.cpu.iew.instsToCommit                   111887                       # Cumulative count of insts sent to commit (Count)
system.cpu.iew.writebackCount                  111364                       # Cumulative count of insts written-back (Count)
system.cpu.iew.producerInst                     79804                       # Number of instructions producing a value (Count)
system.cpu.iew.consumerInst                    138610                       # Number of instructions consuming a value (Count)
system.cpu.iew.wbRate                        1.078043                       # Insts written-back per cycle ((Count/Cycle))
system.cpu.iew.wbFanout                      0.575745                       # Average fanout of values written-back ((Count/Count))
system.cpu.interrupts.clk_domain.clock          16000                       # Clock period in ticks (Tick)
system.cpu.lsq0.forwLoads                        2740                       # Number of loads that had data forwarded from stores (Count)
system.cpu.lsq0.squashedLoads                    3714                       # Number of loads squashed (Count)
system.cpu.lsq0.ignoredResponses                   12                       # Number of memory responses ignored because the instruction is squashed (Count)
system.cpu.lsq0.memOrderViolation                  71                       # Number of memory ordering violations (Count)
system.cpu.lsq0.squashedStores                   1993                       # Number of stores squashed (Count)
system.cpu.lsq0.rescheduledLoads                   22                       # Number of loads that were rescheduled (Count)
system.cpu.lsq0.blockedByCache                    247                       # Number of times an access to memory failed due to the cache being blocked (Count)
system.cpu.lsq0.loadToUse::samples              14831                       # Distribution of cycle latency between the first time a load is issued and its completion (Unspecified)
system.cpu.lsq0.loadToUse::mean              9.829411                       # Distribution of cycle latency between the first time a load is issued and its completion (Unspecified)
system.cpu.lsq0.loadToUse::stdev            16.860425                       # Distribution of cycle latency between the first time a load is issued and its completion (Unspecified)
system.cpu.lsq0.loadToUse::0-9                  11560     77.94%     77.94% # Distribution of cycle latency between the first time a load is issued and its completion (Unspecified)
system.cpu.lsq0.loadToUse::10-19                  578      3.90%     81.84% # Distribution of cycle latency between the first time a load is issued and its completion (Unspecified)
system.cpu.lsq0.loadToUse::20-29                 1776     11.97%     93.82% # Distribution of cycle latency between the first time a load is issued and its completion (Unspecified)
system.cpu.lsq0.loadToUse::30-39                  300      2.02%     95.84% # Distribution of cycle latency between the first time a load is issued and its completion (Unspecified)
system.cpu.lsq0.loadToUse::40-49                  101      0.68%     96.52% # Distribution of cycle latency between the first time a load is issued and its completion (Unspecified)
system.cpu.lsq0.loadToUse::50-59                  230      1.55%     98.07% # Distribution of cycle latency between the first time a load is issued and its completion (Unspecified)
system.cpu.lsq0.loadToUse::60-69                  108      0.73%     98.80% # Distribution of cycle latency between the first time a load is issued and its completion (Unspecified)
system.cpu.lsq0.loadToUse::70-79                   19      0.13%     98.93% # Distribution of cycle latency between the first time a load is issued and its completion (Unspecified)
system.cpu.lsq0.loadToUse::80-89                    7      0.05%     98.98% # Distribution of cycle latency between the first time a load is issued and its completion (Unspecified)
system.cpu.lsq0.loadToUse::90-99                   39      0.26%     99.24% # Distribution of cycle latency between the first time a load is issued and its completion (Unspecified)
system.cpu.lsq0.loadToUse::100-109                 16      0.11%     99.35% # Distribution of cycle latency between the first time a load is issued and its completion (Unspecified)
system.cpu.lsq0.loadToUse::110-119                 25      0.17%     99.51% # Distribution of cycle latency between the first time a load is issued and its completion (Unspecified)
system.cpu.lsq0.loadToUse::120-129                 45      0.30%     99.82% # Distribution of cycle latency between the first time a load is issued and its completion (Unspecified)
system.cpu.lsq0.loadToUse::130-139                  8      0.05%     99.87% # Distribution of cycle latency between the first time a load is issued and its completion (Unspecified)
system.cpu.lsq0.loadToUse::140-149                  3      0.02%     99.89% # Distribution of cycle latency between the first time a load is issued and its completion (Unspecified)
system.cpu.lsq0.loadToUse::150-159                  3      0.02%     99.91% # Distribution of cycle latency between the first time a load is issued and its completion (Unspecified)
system.cpu.lsq0.loadToUse::160-169                  3      0.02%     99.93% # Distribution of cycle latency between the first time a load is issued and its completion (Unspecified)
system.cpu.lsq0.loadToUse::170-179                  1      0.01%     99.94% # Distribution of cycle latency between the first time a load is issued and its completion (Unspecified)
system.cpu.lsq0.loadToUse::180-189                  4      0.03%     99.97% # Distribution of cycle latency between the first time a load is issued and its completion (Unspecified)
system.cpu.lsq0.loadToUse::230-239                  4      0.03%     99.99% # Distribution of cycle latency between the first time a load is issued and its completion (Unspecified)
system.cpu.lsq0.loadToUse::240-249                  1      0.01%    100.00% # Distribution of cycle latency between the first time a load is issued and its completion (Unspecified)
system.cpu.lsq0.loadToUse::min_value                2                       # Distribution of cycle latency between the first time a load is issued and its completion (Unspecified)
system.cpu.lsq0.loadToUse::max_value              241                       # Distribution of cycle latency between the first time a load is issued and its completion (Unspecified)
system.cpu.lsq0.loadToUse::total                14831                       # Distribution of cycle latency between the first time a load is issued and its completion (Unspecified)
system.cpu.mmu.dtb.rdAccesses                   17648                       # TLB accesses on read requests (Count)
system.cpu.mmu.dtb.wrAccesses                    7455                       # TLB accesses on write requests (Count)
system.cpu.mmu.dtb.rdMisses                       112                       # TLB misses on read requests (Count)
system.cpu.mmu.dtb.wrMisses                        27                       # TLB misses on write requests (Count)
system.cpu.mmu.dtb.walker.power_state.pwrStateResidencyTicks::UNDEFINED    103301000                       # Cumulative time (in ticks) in various power states (Tick)
system.cpu.mmu.itb.rdAccesses                       0                       # TLB accesses on read requests (Count)
system.cpu.mmu.itb.wrAccesses                    9085                       # TLB accesses on write requests (Count)
system.cpu.mmu.itb.rdMisses                         0                       # TLB misses on read requests (Count)
system.cpu.mmu.itb.wrMisses                       170                       # TLB misses on write requests (Count)
system.cpu.mmu.itb.walker.power_state.pwrStateResidencyTicks::UNDEFINED    103301000                       # Cumulative time (in ticks) in various power states (Tick)
system.cpu.power_state.pwrStateResidencyTicks::ON    103301000                       # Cumulative time (in ticks) in various power states (Tick)
system.cpu.rename.squashCycles                    961                       # Number of cycles rename is squashing (Cycle)
system.cpu.rename.idleCycles                    32101                       # Number of cycles rename is idle (Cycle)
system.cpu.rename.blockCycles                    9916                       # Number of cycles rename is blocking (Cycle)
system.cpu.rename.serializeStallCycles             37                       # count of cycles rename stalled for serializing inst (Cycle)
system.cpu.rename.runCycles                     16351                       # Number of cycles rename is running (Cycle)
system.cpu.rename.unblockCycles                 17196                       # Number of cycles rename is unblocking (Cycle)
system.cpu.rename.renamedInsts                 125732                       # Number of instructions processed by rename (Count)
system.cpu.rename.ROBFullEvents                    96                       # Number of times rename has blocked due to ROB full (Count)
system.cpu.rename.IQFullEvents                   4339                       # Number of times rename has blocked due to IQ full (Count)
[...]
system.mem_ctrl.requestorReadAvgLat::cpu.inst     28074.63                       # Per-requestor read average memory access latency ((Tick/Count))
system.mem_ctrl.requestorReadAvgLat::cpu.data     29208.33                       # Per-requestor read average memory access latency ((Tick/Count))
system.mem_ctrl.dram.bytesRead::cpu.inst        42880                       # Number of bytes read from this memory (Byte)
system.mem_ctrl.dram.bytesRead::cpu.data        22656                       # Number of bytes read from this memory (Byte)
system.mem_ctrl.dram.bytesRead::total           65536                       # Number of bytes read from this memory (Byte)
system.mem_ctrl.dram.bytesInstRead::cpu.inst        42880                       # Number of instructions bytes read from this memory (Byte)
system.mem_ctrl.dram.bytesInstRead::total        42880                       # Number of instructions bytes read from this memory (Byte)
system.mem_ctrl.dram.numReads::cpu.inst           670                       # Number of read requests responded to by this memory (Count)
system.mem_ctrl.dram.numReads::cpu.data           354                       # Number of read requests responded to by this memory (Count)
system.mem_ctrl.dram.numReads::total             1024                       # Number of read requests responded to by this memory (Count)
system.mem_ctrl.dram.bwRead::cpu.inst       415097627                       # Total read bandwidth from this memory ((Byte/Second))
system.mem_ctrl.dram.bwRead::cpu.data       219320239                       # Total read bandwidth from this memory ((Byte/Second))
system.mem_ctrl.dram.bwRead::total          634417866                       # Total read bandwidth from this memory ((Byte/Second))
system.mem_ctrl.dram.bwInstRead::cpu.inst    415097627                       # Instruction read bandwidth from this memory ((Byte/Second))
system.mem_ctrl.dram.bwInstRead::total      415097627                       # Instruction read bandwidth from this memory ((Byte/Second))
system.mem_ctrl.dram.bwTotal::cpu.inst      415097627                       # Total bandwidth to/from this memory ((Byte/Second))
system.mem_ctrl.dram.bwTotal::cpu.data      219320239                       # Total bandwidth to/from this memory ((Byte/Second))
system.mem_ctrl.dram.bwTotal::total         634417866                       # Total bandwidth to/from this memory ((Byte/Second))
system.mem_ctrl.dram.readBursts                  1024                       # Number of DRAM read bursts (Count)
system.mem_ctrl.dram.writeBursts                    0                       # Number of DRAM write bursts (Count)
system.mem_ctrl.dram.perBankRdBursts::0           147                       # Per bank write bursts (Count)
system.mem_ctrl.dram.perBankRdBursts::1           175                       # Per bank write bursts (Count)
system.mem_ctrl.dram.perBankRdBursts::2            83                       # Per bank write bursts (Count)
system.mem_ctrl.dram.perBankRdBursts::3            70                       # Per bank write bursts (Count)
system.mem_ctrl.dram.perBankRdBursts::4            64                       # Per bank write bursts (Count)
system.mem_ctrl.dram.perBankRdBursts::5             7                       # Per bank write bursts (Count)
system.mem_ctrl.dram.perBankRdBursts::6            88                       # Per bank write bursts (Count)
system.mem_ctrl.dram.perBankRdBursts::7            22                       # Per bank write bursts (Count)
system.mem_ctrl.dram.perBankRdBursts::8            31                       # Per bank write bursts (Count)
system.mem_ctrl.dram.perBankRdBursts::9            14                       # Per bank write bursts (Count)
system.mem_ctrl.dram.perBankRdBursts::10           25                       # Per bank write bursts (Count)
system.mem_ctrl.dram.perBankRdBursts::11           50                       # Per bank write bursts (Count)
system.mem_ctrl.dram.perBankRdBursts::12           63                       # Per bank write bursts (Count)
system.mem_ctrl.dram.perBankRdBursts::13           42                       # Per bank write bursts (Count)
system.mem_ctrl.dram.perBankRdBursts::14           63                       # Per bank write bursts (Count)
system.mem_ctrl.dram.perBankRdBursts::15           80                       # Per bank write bursts (Count)
system.mem_ctrl.dram.perBankWrBursts::0             0                       # Per bank write bursts (Count)
system.mem_ctrl.dram.perBankWrBursts::1             0                       # Per bank write bursts (Count)
system.mem_ctrl.dram.perBankWrBursts::2             0                       # Per bank write bursts (Count)
system.mem_ctrl.dram.perBankWrBursts::3             0                       # Per bank write bursts (Count)
system.mem_ctrl.dram.perBankWrBursts::4             0                       # Per bank write bursts (Count)
system.mem_ctrl.dram.perBankWrBursts::5             0                       # Per bank write bursts (Count)
system.mem_ctrl.dram.perBankWrBursts::6             0                       # Per bank write bursts (Count)
system.mem_ctrl.dram.perBankWrBursts::7             0                       # Per bank write bursts (Count)
system.mem_ctrl.dram.perBankWrBursts::8             0                       # Per bank write bursts (Count)
system.mem_ctrl.dram.perBankWrBursts::9             0                       # Per bank write bursts (Count)
system.mem_ctrl.dram.perBankWrBursts::10            0                       # Per bank write bursts (Count)
system.mem_ctrl.dram.perBankWrBursts::11            0                       # Per bank write bursts (Count)
system.mem_ctrl.dram.perBankWrBursts::12            0                       # Per bank write bursts (Count)
system.mem_ctrl.dram.perBankWrBursts::13            0                       # Per bank write bursts (Count)
system.mem_ctrl.dram.perBankWrBursts::14            0                       # Per bank write bursts (Count)
system.mem_ctrl.dram.perBankWrBursts::15            0                       # Per bank write bursts (Count)
system.mem_ctrl.dram.totQLat                  9949750                       # Total ticks spent queuing (Tick)
system.mem_ctrl.dram.totBusLat                5120000                       # Total ticks spent in databus transfers (Tick)
system.mem_ctrl.dram.totMemAccLat            29149750                       # Total ticks spent from burst creation until serviced by the DRAM (Tick)
system.mem_ctrl.dram.avgQLat                  9716.55                       # Average queueing delay per DRAM burst ((Tick/Count))
system.mem_ctrl.dram.avgBusLat                5000.00                       # Average bus latency per DRAM burst ((Tick/Count))
system.mem_ctrl.dram.avgMemAccLat            28466.55                       # Average memory access latency per DRAM burst ((Tick/Count))
system.mem_ctrl.dram.readRowHits                  783                       # Number of row buffer hits during reads (Count)
system.mem_ctrl.dram.writeRowHits                   0                       # Number of row buffer hits during writes (Count)
system.mem_ctrl.dram.readRowHitRate             76.46                       # Row buffer hit rate for reads (Ratio)
system.mem_ctrl.dram.writeRowHitRate              nan                       # Row buffer hit rate for writes (Ratio)
system.mem_ctrl.dram.bytesPerActivate::samples          234                       # Bytes accessed per row activation (Byte)
system.mem_ctrl.dram.bytesPerActivate::mean   276.786325                       # Bytes accessed per row activation (Byte)
system.mem_ctrl.dram.bytesPerActivate::gmean   176.198408                       # Bytes accessed per row activation (Byte)
system.mem_ctrl.dram.bytesPerActivate::stdev   279.608918                       # Bytes accessed per row activation (Byte)
system.mem_ctrl.dram.bytesPerActivate::0-127           82     35.04%     35.04% # Bytes accessed per row activation (Byte)
system.mem_ctrl.dram.bytesPerActivate::128-255           61     26.07%     61.11% # Bytes accessed per row activation (Byte)
system.mem_ctrl.dram.bytesPerActivate::256-383           29     12.39%     73.50% # Bytes accessed per row activation (Byte)
system.mem_ctrl.dram.bytesPerActivate::384-511           14      5.98%     79.49% # Bytes accessed per row activation (Byte)
system.mem_ctrl.dram.bytesPerActivate::512-639           20      8.55%     88.03% # Bytes accessed per row activation (Byte)
system.mem_ctrl.dram.bytesPerActivate::640-767            3      1.28%     89.32% # Bytes accessed per row activation (Byte)
system.mem_ctrl.dram.bytesPerActivate::768-895            6      2.56%     91.88% # Bytes accessed per row activation (Byte)
system.mem_ctrl.dram.bytesPerActivate::896-1023            6      2.56%     94.44% # Bytes accessed per row activation (Byte)
system.mem_ctrl.dram.bytesPerActivate::1024-1151           13      5.56%    100.00% # Bytes accessed per row activation (Byte)
system.mem_ctrl.dram.bytesPerActivate::total          234                       # Bytes accessed per row activation (Byte)
system.mem_ctrl.dram.bytesRead                  65536                       # Total bytes read (Byte)
system.mem_ctrl.dram.bytesWritten                   0                       # Total bytes written (Byte)
system.mem_ctrl.dram.avgRdBW               634.417866                       # Average DRAM read bandwidth in MiBytes/s ((Byte/Second))
system.mem_ctrl.dram.avgWrBW                        0                       # Average DRAM write bandwidth in MiBytes/s ((Byte/Second))
system.mem_ctrl.dram.peakBW                  12800.00                       # Theoretical peak bandwidth in MiByte/s ((Byte/Second))
system.mem_ctrl.dram.busUtil                     4.96                       # Data bus utilization in percentage (Ratio)
system.mem_ctrl.dram.busUtilRead                 4.96                       # Data bus utilization in percentage for reads (Ratio)
system.mem_ctrl.dram.busUtilWrite                0.00                       # Data bus utilization in percentage for writes (Ratio)
system.mem_ctrl.dram.pageHitRate                76.46                       # Row buffer hit rate, read and write combined (Ratio)
system.mem_ctrl.dram.power_state.pwrStateResidencyTicks::UNDEFINED    103301000                       # Cumulative time (in ticks) in various power states (Tick)
system.mem_ctrl.dram.rank0.actEnergy          1056720                       # Energy for activate commands per rank (pJ) (Joule)
system.mem_ctrl.dram.rank0.preEnergy           546480                       # Energy for precharge commands per rank (pJ) (Joule)
system.mem_ctrl.dram.rank0.readEnergy         4683840                       # Energy for read commands per rank (pJ) (Joule)
system.mem_ctrl.dram.rank0.writeEnergy              0                       # Energy for write commands per rank (pJ) (Joule)
system.mem_ctrl.dram.rank0.refreshEnergy 7990320.000000                       # Energy for refresh commands per rank (pJ) (Joule)
system.mem_ctrl.dram.rank0.actBackEnergy     45921480                       # Energy for active background per rank (pJ) (Joule)
system.mem_ctrl.dram.rank0.preBackEnergy       996960                       # Energy for precharge background per rank (pJ) (Joule)
system.mem_ctrl.dram.rank0.actPowerDownEnergy            0                       # Energy for active power-down per rank (pJ) (Joule)
system.mem_ctrl.dram.rank0.prePowerDownEnergy            0                       # Energy for precharge power-down per rank (pJ) (Joule)
system.mem_ctrl.dram.rank0.selfRefreshEnergy            0                       # Energy for self refresh per rank (pJ) (Joule)
system.mem_ctrl.dram.rank0.totalEnergy       61195800                       # Total energy per rank (pJ) (Joule)
system.mem_ctrl.dram.rank0.averagePower    592.402784                       # Core power per rank (mW) (Watt)
system.mem_ctrl.dram.rank0.totalIdleTime            0                       # Total Idle time Per DRAM Rank (Tick)
system.mem_ctrl.dram.rank0.pwrStateTime::IDLE      2207750                       # Time in different power states (Tick)
system.mem_ctrl.dram.rank0.pwrStateTime::REF      3380000                       # Time in different power states (Tick)
system.mem_ctrl.dram.rank0.pwrStateTime::SREF            0                       # Time in different power states (Tick)
system.mem_ctrl.dram.rank0.pwrStateTime::PRE_PDN            0                       # Time in different power states (Tick)
system.mem_ctrl.dram.rank0.pwrStateTime::ACT     97713250                       # Time in different power states (Tick)
system.mem_ctrl.dram.rank0.pwrStateTime::ACT_PDN            0                       # Time in different power states (Tick)
system.mem_ctrl.dram.rank1.actEnergy           664020                       # Energy for activate commands per rank (pJ) (Joule)
system.mem_ctrl.dram.rank1.preEnergy           341550                       # Energy for precharge commands per rank (pJ) (Joule)
system.mem_ctrl.dram.rank1.readEnergy         2627520                       # Energy for read commands per rank (pJ) (Joule)
system.mem_ctrl.dram.rank1.writeEnergy              0                       # Energy for write commands per rank (pJ) (Joule)
system.mem_ctrl.dram.rank1.refreshEnergy 7990320.000000                       # Energy for refresh commands per rank (pJ) (Joule)
system.mem_ctrl.dram.rank1.actBackEnergy     33561600                       # Energy for active background per rank (pJ) (Joule)
system.mem_ctrl.dram.rank1.preBackEnergy     11405280                       # Energy for precharge background per rank (pJ) (Joule)
system.mem_ctrl.dram.rank1.actPowerDownEnergy            0                       # Energy for active power-down per rank (pJ) (Joule)
system.mem_ctrl.dram.rank1.prePowerDownEnergy            0                       # Energy for precharge power-down per rank (pJ) (Joule)
system.mem_ctrl.dram.rank1.selfRefreshEnergy            0                       # Energy for self refresh per rank (pJ) (Joule)
system.mem_ctrl.dram.rank1.totalEnergy       56590290                       # Total energy per rank (pJ) (Joule)
system.mem_ctrl.dram.rank1.averagePower    547.819382                       # Core power per rank (mW) (Watt)
system.mem_ctrl.dram.rank1.totalIdleTime            0                       # Total Idle time Per DRAM Rank (Tick)
system.mem_ctrl.dram.rank1.pwrStateTime::IDLE     29270750                       # Time in different power states (Tick)
system.mem_ctrl.dram.rank1.pwrStateTime::REF      3380000                       # Time in different power states (Tick)
system.mem_ctrl.dram.rank1.pwrStateTime::SREF            0                       # Time in different power states (Tick)
system.mem_ctrl.dram.rank1.pwrStateTime::PRE_PDN            0                       # Time in different power states (Tick)
system.mem_ctrl.dram.rank1.pwrStateTime::ACT     70650250                       # Time in different power states (Tick)
system.mem_ctrl.dram.rank1.pwrStateTime::ACT_PDN            0                       # Time in different power states (Tick)
system.mem_ctrl.power_state.pwrStateResidencyTicks::UNDEFINED    103301000                       # Cumulative time (in ticks) in various power states (Tick)
system.membus.transDist::ReadResp                 812                       # Transaction distribution (Count)
system.membus.transDist::ReadExReq                212                       # Transaction distribution (Count)
system.membus.transDist::ReadExResp               212                       # Transaction distribution (Count)
system.membus.transDist::ReadSharedReq            812                       # Transaction distribution (Count)
system.membus.pktCount_system.l2cache.mem_side_port::system.mem_ctrl.port         2048                       # Packet count per connected requestor and responder (Count)
system.membus.pktCount_system.l2cache.mem_side_port::total         2048                       # Packet count per connected requestor and responder (Count)
system.membus.pktCount::total                    2048                       # Packet count per connected requestor and responder (Count)
system.membus.pktSize_system.l2cache.mem_side_port::system.mem_ctrl.port        65536                       # Cumulative packet size per connected requestor and responder (Byte)
system.membus.pktSize_system.l2cache.mem_side_port::total        65536                       # Cumulative packet size per connected requestor and responder (Byte)
system.membus.pktSize::total                    65536                       # Cumulative packet size per connected requestor and responder (Byte)
system.membus.snoops                                0                       # Total snoops (Count)
system.membus.snoopTraffic                          0                       # Total snoop traffic (Byte)
system.membus.snoopFanout::samples               1024                       # Request fanout histogram (Count)
system.membus.snoopFanout::mean                     0                       # Request fanout histogram (Count)
system.membus.snoopFanout::stdev                    0                       # Request fanout histogram (Count)
system.membus.snoopFanout::underflows               0      0.00%      0.00% # Request fanout histogram (Count)
system.membus.snoopFanout::0                     1024    100.00%    100.00% # Request fanout histogram (Count)
system.membus.snoopFanout::1                        0      0.00%    100.00% # Request fanout histogram (Count)
system.membus.snoopFanout::overflows                0      0.00%    100.00% # Request fanout histogram (Count)
system.membus.snoopFanout::min_value                0                       # Request fanout histogram (Count)
system.membus.snoopFanout::max_value                0                       # Request fanout histogram (Count)
system.membus.snoopFanout::total                 1024                       # Request fanout histogram (Count)
system.membus.power_state.pwrStateResidencyTicks::UNDEFINED    103301000                       # Cumulative time (in ticks) in various power states (Tick)
system.membus.reqLayer2.occupancy             1024000                       # Layer occupancy (ticks) (Tick)
system.membus.reqLayer2.utilization               0.0                       # Layer utilization (Ratio)
system.membus.respLayer0.occupancy            5441750                       # Layer occupancy (ticks) (Tick)
system.membus.respLayer0.utilization              0.1                       # Layer utilization (Ratio)
system.membus.snoop_filter.totRequests           1024                       # Total number of requests made to the snoop filter. (Count)
system.membus.snoop_filter.hitSingleRequests            0                       # Number of requests hitting in the snoop filter with a single holder of the requested data. (Count)
system.membus.snoop_filter.hitMultiRequests            0                       # Number of requests hitting in the snoop filter with multiple (>1) holders of the requested data. (Count)
system.membus.snoop_filter.totSnoops                0                       # Total number of snoops made to the snoop filter. (Count)
system.membus.snoop_filter.hitSingleSnoops            0                       # Number of snoops hitting in the snoop filter with a single holder of the requested data. (Count)
system.membus.snoop_filter.hitMultiSnoops            0                       # Number of snoops hitting in the snoop filter with multiple (>1) holders of the requested data. (Count)
system.workload.inst.arm                            0                       # number of arm instructions executed (Count)
system.workload.inst.quiesce                        0                       # number of quiesce instructions executed (Count)

---------- End Simulation Statistics   ----------
